# generated using pymatgen
data_MoS2
_symmetry_space_group_name_H-M   'P 1'
_cell_length_a   3.18430383
_cell_length_b   3.18430383
_cell_length_c   19.44629514
_cell_angle_alpha   90.00000000
_cell_angle_beta   90.00000000
_cell_angle_gamma   120.00000000
_symmetry_Int_Tables_number   1
_chemical_formula_structural   MoS2
_chemical_formula_sum   'Mo3 S6'
_cell_volume   170.76407233
_cell_formula_units_Z   3
loop_
 _symmetry_equiv_pos_site_id
 _symmetry_equiv_pos_as_xyz
  1  'x, y, z'
loop_
 _atom_type_symbol
 _atom_type_oxidation_number
  Mo4+  4.0
  S2-  -2.0
loop_
 _atom_site_type_symbol
 _atom_site_label
 _atom_site_symmetry_multiplicity
 _atom_site_fract_x
 _atom_site_fract_y
 _atom_site_fract_z
 _atom_site_occupancy
  Mo4+  Mo0  1  0.66666667  0.33333333  0.33310837  1
  Mo4+  Mo1  1  0.33333333  0.66666667  0.66644171  1
  Mo4+  Mo2  1  0.00000000  0.00000000  0.99977504  1
  S2-  S3  1  0.33333333  0.66666667  0.07959689  1
  S2-  S4  1  0.00000000  0.00000000  0.25329574  1
  S2-  S5  1  0.00000000  0.00000000  0.41293022  1
  S2-  S6  1  0.66666667  0.33333333  0.58662907  1
  S2-  S7  1  0.66666667  0.33333333  0.74626355  1
  S2-  S8  1  0.33333333  0.66666667  0.91996241  1
